Version 4
SHEET 1 880 680
WIRE 560 -48 448 -48
WIRE 448 -16 448 -48
WIRE 560 -16 560 -48
WIRE -48 48 -64 48
WIRE 96 48 32 48
WIRE -176 160 -208 160
WIRE -64 160 -64 48
WIRE -64 160 -96 160
WIRE -32 160 -64 160
WIRE 96 176 96 48
WIRE 96 176 32 176
WIRE -32 192 -80 192
WIRE -208 208 -208 160
WIRE -80 336 -80 192
WIRE -80 336 -144 336
WIRE 0 336 -16 336
WIRE 96 336 96 176
WIRE 96 336 80 336
WIRE -144 368 -144 336
WIRE -80 368 -80 336
WIRE -144 480 -144 432
WIRE -80 480 -80 448
FLAG 336 64 0
FLAG 336 -16 Vcc
FLAG 0 144 Vcc
FLAG 0 208 Vss
FLAG -80 480 0
FLAG -144 480 0
FLAG -208 208 0
FLAG 96 176 vo
FLAG 560 -16 0
FLAG 448 64 Vss
SYMBOL Opamps\\opamp2 0 112 R0
WINDOW 3 25 100 Left 2
SYMATTR InstName U1
SYMATTR Value LM741/NS
SYMBOL voltage 336 -32 R0
WINDOW 123 0 0 Left 2
WINDOW 39 0 0 Left 2
SYMATTR InstName Vcc
SYMATTR Value 15
SYMBOL voltage 448 -32 R0
WINDOW 123 0 0 Left 2
WINDOW 39 0 0 Left 2
SYMATTR InstName Vss
SYMATTR Value 15
SYMBOL res -80 144 R90
WINDOW 0 0 56 VBottom 2
WINDOW 3 32 56 VTop 2
SYMATTR InstName R1
SYMATTR Value 10k
SYMBOL res 48 32 R90
WINDOW 0 0 56 VBottom 2
WINDOW 3 32 56 VTop 2
SYMATTR InstName R2
SYMATTR Value 23.8k
SYMBOL res 96 320 R90
WINDOW 0 0 56 VBottom 2
WINDOW 3 32 56 VTop 2
SYMATTR InstName R3
SYMATTR Value 10k
SYMBOL cap -16 320 R90
WINDOW 0 0 32 VBottom 2
WINDOW 3 32 32 VTop 2
SYMATTR InstName C1
SYMATTR Value 1.6n
SYMBOL res -96 352 R0
SYMATTR InstName R4
SYMATTR Value 10k
SYMBOL cap -160 368 R0
SYMATTR InstName C2
SYMATTR Value 1.6n
TEXT 16 232 Left 2 !.include C:\\Users\\maxch\\Downloads/LM741.MOD
TEXT -228 504 Left 2 !.tran 5m
